#RADIOSS STARTER
# CMP non-production exporter cmp.reference.openradioss-law36 1.0.0
# CMP material-model-revision 00000000-0000-0000-0000-00000000000b
# CMP mapping-report-sha256 a32af1edd03fbba84bc5df37e38949a517184b8468c4e9f27069c6ce72c1ae79
/UNIT/1
CMP_SI_KG_M_S
kg                  m                   s
/MAT/LAW36/42/1
DP600_REFERENCE
#              RHO_I
     7.850000000E+03
#                  E                  nu           Eps_p_max               Eps_t               Eps_m
     2.000000000E+11     3.000000000E-01
#  N_funct  F_smooth              C_hard               F_cut               Eps_f                  VP
         1
#  fct_IDp              Fscale   Fct_IDE                EInf                  CE
# func_ID1
        42
#           Fscale_1
     1.000000000E+00
#          Eps_dot_1
     0.000000000E+00
/FUNCT/42
DP600_REFERENCE_TRUE_STRESS_VS_TRUE_PLASTIC_STRAIN
#                  X                   Y
  0.000000000000E+00     2.500000000E+08
  4.950026626731E-04     3.006000000E+08
  7.930330853168E-03     4.040000000E+08
  4.616516416943E-02     5.250000000E+08
  5.000000000000E-01     5.250000000E+08
/END
