** CMP reference/non-production linear-viscoelastic card
** Consistent units: kg, m, s, Pa
** Bulk relaxation evidence: not_characterized
*MATERIAL, NAME=POLYMER_REFERENCE
*DENSITY
1.200000000000e+03
*ELASTIC
3.000000000000e+09, 3.500000000000e-01
*VISCOELASTIC, TIME=PRONY, TYPE=ISOTROPIC
2.000000000000e-01, 0.000000000000e+00, 1.000000000000e-01
3.000000000000e-01, 0.000000000000e+00, 1.000000000000e+01
