** CMP reference/non-production Ogden-Prony card
** Consistent units: kg, m, s, Pa
** Incompressible N=1 Ogden; instantaneous shear Prony convention
*MATERIAL, NAME=ELASTOMER_REFERENCE
*DENSITY
1.100000000000e+03
*HYPERELASTIC, OGDEN, N=1, MODULI=INSTANTANEOUS
1.200000000000e+06, 2.400000000000e+00, 0.000000000000e+00
*VISCOELASTIC, TIME=PRONY, TYPE=ISOTROPIC
2.000000000000e-01, 0.000000000000e+00, 1.000000000000e-01
3.000000000000e-01, 0.000000000000e+00, 1.000000000000e+01
