** CMP non-production exporter cmp.reference.abaqus-isotropic-plasticity 1.0.0
** Consistent units: kg, m, s, Pa
** CMP material-model-revision 00000000-0000-0000-0000-00000000000b
** CMP mapping-report-sha256 bb075f51489b086cb99dd46616c2ac29965aa5eaaf7d9eb90d81b13d5ef4a1a6
*MATERIAL, NAME=DP600_REFERENCE
*DENSITY
7.850000000000E+03,
*ELASTIC, TYPE=ISOTROPIC
2.000000000000E+11, 3.000000000000E-01
*PLASTIC, HARDENING=ISOTROPIC, EXTRAPOLATION=CONSTANT
2.500000000000E+08, 0.000000000000E+00
3.006000000000E+08, 4.950026626731E-04
4.040000000000E+08, 7.930330853168E-03
5.250000000000E+08, 4.616516416943E-02
5.250000000000E+08, 5.000000000000E-01
